          28
 
H    0.12233000   1.77842000   3.86223000
O    0.93452000   1.84622000   3.36023000
H    0.70825000   1.51371000   2.49163000
 B   0.80158565   1.79497544   3.31329969
O   -4.79274000   1.01486000   5.76425000
H   -3.82274000   1.01486000   5.76425000
H   -5.11607000   0.50708000   5.00364000
 B  -4.70613712   0.94685801   5.66238897
O    7.79981000   2.81249000   0.38116000
H    8.76981000   2.81249000   0.38116000
H    7.47648000   3.41632000  -0.30568000
 B   7.88641279   2.89335547   0.28917776
O   -5.20198000  -0.79127000   0.52588000
H   -4.23198000  -0.79127000   0.52588000
H   -5.52531000  -1.61572000   0.92167000
 B  -5.11537712  -0.90168054   0.57888429
O   -1.82509000   4.30895000   0.72358000
H   -0.85509000   4.30895000   0.72358000
H   -2.14842000   4.83381000  -0.02535000
 B  -1.73848705   4.37923907   0.62328356
O    1.37448000  -1.21586000   3.67283000
H    2.34448000  -1.21586000   3.67283000
H    1.05115000  -2.02404000   4.10085000
 B   1.46108274  -1.32409248   3.73015098
O    3.36701000   5.62461000   0.77688000
H    4.33701000   5.62461000   0.77688000
H    3.04368000   5.13638000   0.00357000
 B   3.45361298   5.55922653   0.67331879
