21

H          0.12233        1.77842        3.86223
O          0.93452        1.84622        3.36023
H          0.70825        1.51371        2.49163
O         -4.79274        1.01486        5.76425
H         -3.82274        1.01486        5.76425
H         -5.11607        0.50708        5.00364
O          7.79981        2.81249        0.38116
H          8.76981        2.81249        0.38116
H          7.47648        3.41632       -0.30568
O         -5.20198       -0.79127        0.52588
H         -4.23198       -0.79127        0.52588
H         -5.52531       -1.61572        0.92167
O         -1.82509        4.30895        0.72358
H         -0.85509        4.30895        0.72358
H         -2.14842        4.83381       -0.02535
O          1.37448       -1.21586        3.67283
H          2.34448       -1.21586        3.67283
H          1.05115       -2.02404        4.10085
O          3.36701        5.62461        0.77688
H          4.33701        5.62461        0.77688
H          3.04368        5.13638        0.00357
